*Heading
** Job name: Job-ele12k Model name: ncf_R_c3d4_length100
** Generated by: Abaqus/CAE 2020
*Preprint, echo=NO, model=NO, history=NO, contact=NO
**
** PARTS
**
*Part, name=bracket_length_100mm-1
*Node
      1,   -13.867816,   19.0499992,       19.177
      2,  -4.21581602,   19.0499992,       19.177
      3,  -4.21581602,   19.0499992,   38.2270012
      4,   -13.867816,   19.0499992,   38.2270012
      5,   -13.867816,   38.0999985,   34.7980003
      6,   -13.867816,       28.448,   44.4500008
      7,  -4.21581602,       28.448,   44.4500008
      8,  -4.21581602,   38.0999985,   34.7980003
      9,  -4.21581602,           0.,   44.4500008
     10,   -13.867816,           0.,   44.4500008
     11,  -4.21581602,   38.0999985,   12.6999998
     12,  -4.21581602,           0.,   12.6999998
     13,   -13.867816,   38.0999985,   12.6999998
     14,   -13.867816,           0.,   12.6999998
     15,  -11.9374161,   19.0499992,       19.177
     16,  -10.0070162,   19.0499992,       19.177
     17,  -8.07661629,   19.0499992,       19.177
     18,  -6.14621592,   19.0499992,       19.177
     19,  -4.21581602,   21.0303593,   19.3851433
     20,  -4.21581602,   22.9241657,   20.0004787
** ... 2892 like lines cut
*Element, type=C3D4
   1,  979,  980,  827,  981
   2,  982,  983,  984,  985
   3,  403,  986,  402,  735
   4,  987,  988,  989,  990
   5,  990,  991,  992,  993
   6,  988,  994,  995,  990
   7,  990,  991,  993,  995
   8,  996,  995,  989,  988
   9,  997,  998,  999, 1000
  10, 1001, 1002, 1003, 1004
  11, 1005, 1001, 1006, 1007
  12, 1001, 1008, 1005, 1009
  13, 1001, 1009, 1010, 1011
  14, 1001, 1004, 1012, 1007
  15, 1013, 1014, 1015,  498
  16, 1013,  498, 1015,  607
  17, 1013, 1016, 1017, 1018
  18, 1013, 1017, 1019, 1018
  19, 1013,  607, 1020, 1019
  20, 1021, 1022, 1023, 1024
** ... 12159 like lines cut
*Nset, nset=Set-1, generate
    1,  2912,     1
*Elset, elset=Set-1, generate
    1,  12179,     1
*End Instance
*BndMesh_F
1790, 2715, 3824, 3836, 3983, 4843, 5443, 6056, 6454, 6484, 7091, 7099, 7116, 7167, 7187, 7237, 7267, 7272, 7300, 7316, 7340, 
702, 1818, 5813, 6426, 6540, 6692, 7082, 7215, 7232, 7253, 7351, 
183, 417, 419, 546, 587, 636, 1120, 1121, 1185, 1620, 1638, 1686, 1698, 1726, 2242, 2514, 2681, 2696, 2698, 2849, 3745, 3797, 3803, 3820, 3856, 3867, 3970, 3975, 4156, 4384, 4422, 4478, 4481, 4490, 4502, 4678, 4695, 4819, 4828, 4856, 4900, 4935, 4984, 5004, 5008, 5010, 5035, 5054, 5055, 5366, 5595, 5596, 5614, 5636, 5656, 5667, 5668, 5814, 5919, 5922, 5955, 5960, 5963, 5974, 6020, 6044, 6079, 6285
1263, 1626, 4484, 4506, 4713, 4720, 5618, 5619, 5676, 5681, 5917, 6283, 6433, 6987, 7136, 7137, 7293, 7344, 7376, 8194, 
*BndMesh_C
9474, 10196, 10600, 10947, 10971, 11106, 11314, 11683, 11688, 11842, 
10820, 11051, 11071, 11113, 11176, 11659, 11750, 11788, 
8869, 9138, 9676, 10027, 10240, 10694, 10885, 10897, 10966, 10983, 10988, 11029, 11037, 11043, 11046, 11055, 11056, 11072, 11085, 11115, 11116, 11127, 11198, 11210, 11211, 11214, 11271, 11273, 11275, 11279, 11308, 11322, 11356, 11358, 11367, 11416, 11486, 11520, 11582, 11609, 11623, 11638, 11666, 11670, 11677, 11678, 11679, 11747, 11756, 11782, 11784, 11789, 11805, 11834, 11850, 11853, 11872, 1190
9170, 11280, 11618, 
*BndFace_finemesh, facenode=3
971, 169, 967, 
927, 158, 923, 
951, 165, 164, 
943, 162, 939, 
160, 935, 161, 
967, 169, 168, 
923, 157, 919, 
911, 154, 907, 
922, 199, 926, 
199, 198, 926, 
915, 155, 911, 
918, 914, 201, 
919, 156, 915, 
930, 926, 198, 
938, 196, 195, 
942, 938, 195, 
947, 163, 943, 
193, 946, 194, 
954, 950, 192, 
955, 165, 951, 
** ... 170 like lines cut
*BndFace_coarsemesh, facenode=3
2538, 2542, 2537, 
2473, 2436, 2475, 
2509, 2473, 2475, 
2508, 2532, 2509, 
2541, 2509, 2542, 
2437, 2441, 1997, 
2459, 2066, 2065, 
2436, 1999, 2433, 
2441, 1998, 1997, 
2065, 2064, 2457, 
2509, 2475, 2508, 
2478, 2476, 2505, 
2433, 1999, 1998, 
2437, 1997, 1996, 
2434, 2001, 2000, 
2441, 2433, 1998, 
2513, 2489, 2515, 
2436, 2000, 1999, 
2509, 2532, 2542, 
2063, 2458, 2456, 
** ... 66 like lines cut
*End Nconforming
*Set-fix
1902, 1903, 1904, 1905, 1930, 1931, 1932, 1933, 1934, 1935, 1936, 1937, 1938, 1939, 1940, 1941
 1942, 1943, 1944, 1945, 1946, 1947, 1948, 1949, 1950, 1951, 2105, 2106, 2107, 2108, 2109, 2110
 2111, 2112, 2113, 2114
*Set-load
6,  10, 112, 113, 114, 115, 116, 117, 118, 119, 120, 121, 122, 123, 124
*End Assembly
** Section: Section-1
*Solid Section, elset=Set-1, material=Material-1
,
*End Part
**  
*Part, name=bracket_length_100mm-2
*Nset, nset=Set-1, generate
 1902,  2912,     1
*Elset, elset=Set-1, generate
  8281,  12179,      1
** Section: Section-1
*Solid Section, elset=Set-1, material=Material-1
,
*End Part
**  
**
** ASSEMBLY
**
*Assembly, name=Assembly
**  
*Instance, name=bracket_length_100mm-1-1, part=bracket_length_100mm-1
*End Instance
**  
*Instance, name=bracket_length_100mm-2-1, part=bracket_length_100mm-2
*End Instance
**  
*Nset, nset=hezai, instance=bracket_length_100mm-1-1
   6,  10, 112, 113, 114, 115, 116, 117, 118, 119, 120, 121, 122, 123, 124
*Nset, nset=yueshu, instance=bracket_length_100mm-2-1
 1902, 1903, 1904, 1905, 1930, 1931, 1932, 1933, 1934, 1935, 1936, 1937, 1938, 1939, 1940, 1941
 1942, 1943, 1944, 1945, 1946, 1947, 1948, 1949, 1950, 1951, 2105, 2106, 2107, 2108, 2109, 2110
 2111, 2112, 2113, 2114
*Elset, elset=_CP-1-bracket_length_100mm-1-1_S3, internal, instance=bracket_length_100mm-1-1
  183,  417,  419,  546,  587,  636, 1120, 1121, 1185, 1620, 1638, 1686, 1698, 1726, 2242, 2514
 2681, 2696, 2698, 2849, 3745, 3797, 3803, 3820, 3856, 3867, 3970, 3975, 4156, 4384, 4422, 4478
 4481, 4490, 4502, 4678, 4695, 4819, 4828, 4856, 4900, 4935, 4984, 5004, 5008, 5010, 5035, 5054
 5055, 5366, 5595, 5596, 5614, 5636, 5656, 5667, 5668, 5814, 5919, 5922, 5955, 5960, 5963, 5974
 6020, 6044, 6079, 6285, 6452, 6627, 6687, 6701, 6766, 6955, 7055, 7057, 7060, 7066, 7070, 7072
 7081, 7086, 7087, 7109, 7112, 7120, 7127, 7129, 7138, 7144, 7145, 7147, 7150, 7156, 7157, 7158
 7179, 7188, 7189, 7205, 7206, 7211, 7227, 7228, 7235, 7238, 7242, 7244, 7245, 7251, 7256, 7257
 7261, 7266, 7269, 7284, 7287, 7294, 7306, 7315, 7328, 7332, 7342, 7348, 7359, 7362, 7368, 7371
 7373, 7380, 7413, 7440, 7526, 7533, 7540, 7543, 7545, 7649
*Elset, elset=_CP-1-bracket_length_100mm-1-1_S2, internal, instance=bracket_length_100mm-1-1
  702, 1818, 5813, 6426, 6540, 6692, 7082, 7215, 7232, 7253, 7351
*Elset, elset=_CP-1-bracket_length_100mm-1-1_S4, internal, instance=bracket_length_100mm-1-1
 1263, 1626, 4484, 4506, 4713, 4720, 5618, 5619, 5676, 5681, 5917, 6283, 6433, 6987, 7136, 7137
 7293, 7344, 7376, 8194
*Elset, elset=_CP-1-bracket_length_100mm-1-1_S1, internal, instance=bracket_length_100mm-1-1
 1790, 2715, 3824, 3836, 3983, 4843, 5443, 6056, 6454, 6484, 7091, 7099, 7116, 7167, 7187, 7237
 7267, 7272, 7300, 7316, 7340
*Surface, type=ELEMENT, name=CP-1-bracket_length_100mm-1-1
_CP-1-bracket_length_100mm-1-1_S3, S3
_CP-1-bracket_length_100mm-1-1_S2, S2
_CP-1-bracket_length_100mm-1-1_S4, S4
_CP-1-bracket_length_100mm-1-1_S1, S1
*Elset, elset=_CP-1-bracket_length_100mm-2-1_S3, internal, instance=bracket_length_100mm-2-1
  8335,  8394,  8489,  8505,  8544,  8603,  8604,  8688,  8754,  8787,  8788,  8832,  8869,  9121,  9138,  9189
  9191,  9217,  9301,  9314,  9521,  9532,  9611,  9676,  9815,  9879,  9947,  9949,  9978, 10027, 10029, 10215
 10240, 10331, 10444, 10621, 10694, 10751, 10769, 10819, 10823, 10837, 10844, 10855, 10866, 10880, 10885, 10897
 10966, 10983, 10988, 10999, 11012, 11026, 11029, 11037, 11043, 11046, 11048, 11055, 11056, 11058, 11061, 11063
 11065, 11066, 11067, 11068, 11070, 11072, 11074, 11076, 11079, 11081, 11082, 11085, 11093, 11095, 11096, 11099
 11115, 11116, 11127, 11130, 11145, 11165, 11169, 11174, 11175, 11178, 11181, 11188, 11198, 11207, 11210, 11211
 11213, 11214, 11218, 11223, 11229, 11234, 11240, 11241, 11245, 11247, 11250, 11254, 11268, 11271, 11273, 11275
 11279, 11284, 11288, 11289, 11291, 11294, 11302, 11308, 11312, 11321, 11322, 11346, 11348, 11356, 11358, 11367
 11383, 11387, 11391, 11393, 11395, 11399, 11407, 11415, 11416, 11419, 11428, 11441, 11449, 11454, 11455, 11460
 11466, 11467, 11468, 11471, 11478, 11486, 11498, 11512, 11518, 11520, 11521, 11525, 11536, 11545, 11552, 11553
 11568, 11582, 11590, 11602, 11609, 11623, 11625, 11630, 11632, 11638, 11640, 11644, 11646, 11666, 11670, 11677
 11678, 11679, 11693, 11694, 11702, 11711, 11718, 11719, 11726, 11747, 11756, 11782, 11784, 11789, 11805, 11812
 11814, 11832, 11834, 11850, 11853, 11855, 11860, 11872, 11875, 11890, 11902, 11927, 11947, 11957, 11959, 11969
 11977, 11995, 12018, 12024, 12034, 12050, 12055, 12075, 12076, 12095, 12096, 12107, 12135, 12163, 12164, 12179
*Elset, elset=_CP-1-bracket_length_100mm-2-1_S4, internal, instance=bracket_length_100mm-2-1
  8411,  8480,  8562,  9170,  9208,  9507,  9633,  9705,  9824, 10709, 10901, 10924, 11013, 11280, 11543, 11618
 11710, 11727, 11861, 11895, 12102, 12154, 12161
*Elset, elset=_CP-1-bracket_length_100mm-2-1_S1, internal, instance=bracket_length_100mm-2-1
  8450,  9112,  9474, 10081, 10109, 10196, 10600, 10947, 10971, 10997, 11094, 11106, 11110, 11196, 11314, 11413
 11492, 11527, 11535, 11658, 11683, 11688, 11781, 11842
*Elset, elset=_CP-1-bracket_length_100mm-2-1_S2, internal, instance=bracket_length_100mm-2-1
  8769,  8923,  9023,  9168,  9640,  9933,  9945,  9962, 10180, 10337, 10564, 10787, 10820, 11051, 11071, 11113
 11119, 11176, 11259, 11311, 11333, 11456, 11575, 11659, 11750, 11777, 11778, 11788, 11795, 11823, 11870, 12097
 12110, 12139
*Surface, type=ELEMENT, name=CP-1-bracket_length_100mm-2-1
_CP-1-bracket_length_100mm-2-1_S3, S3
_CP-1-bracket_length_100mm-2-1_S4, S4
_CP-1-bracket_length_100mm-2-1_S2, S2
_CP-1-bracket_length_100mm-2-1_S1, S1
*Elset, elset=_mian_C_S1, internal, instance=bracket_length_100mm-2-1
  9474, 10196, 10600, 10947, 10971, 11106, 11314, 11683, 11688, 11842
*Elset, elset=_mian_C_S2, internal, instance=bracket_length_100mm-2-1
 10820, 11051, 11071, 11113, 11176, 11659, 11750, 11788
*Elset, elset=_mian_C_S3, internal, instance=bracket_length_100mm-2-1
  8869,  9138,  9676, 10027, 10240, 10694, 10885, 10897, 10966, 10983, 10988, 11029, 11037, 11043, 11046, 11055
 11056, 11072, 11085, 11115, 11116, 11127, 11198, 11210, 11211, 11214, 11271, 11273, 11275, 11279, 11308, 11322
 11356, 11358, 11367, 11416, 11486, 11520, 11582, 11609, 11623, 11638, 11666, 11670, 11677, 11678, 11679, 11747
 11756, 11782, 11784, 11789, 11805, 11834, 11850, 11853, 11872, 11902, 11977, 12024, 12055, 12095, 12096, 12164
 12179,
*Elset, elset=_mian_C_S4, internal, instance=bracket_length_100mm-2-1
  9170, 11280, 11618
*Surface, type=ELEMENT, name=mian_C
_mian_C_S1, S1
_mian_C_S2, S2
_mian_C_S4, S4
_mian_C_S3, S3
*Elset, elset=_mian_F_S1, internal, instance=bracket_length_100mm-1-1
 1790, 2715, 3824, 3836, 3983, 4843, 5443, 6056, 6454, 6484, 7091, 7099, 7116, 7167, 7187, 7237
 7267, 7272, 7300, 7316, 7340
*Elset, elset=_mian_F_S2, internal, instance=bracket_length_100mm-1-1
  702, 1818, 5813, 6426, 6540, 6692, 7082, 7215, 7232, 7253, 7351
*Elset, elset=_mian_F_S3, internal, instance=bracket_length_100mm-1-1
  183,  417,  419,  546,  587,  636, 1120, 1121, 1185, 1620, 1638, 1686, 1698, 1726, 2242, 2514
 2681, 2696, 2698, 2849, 3745, 3797, 3803, 3820, 3856, 3867, 3970, 3975, 4156, 4384, 4422, 4478
 4481, 4490, 4502, 4678, 4695, 4819, 4828, 4856, 4900, 4935, 4984, 5004, 5008, 5010, 5035, 5054
 5055, 5366, 5595, 5596, 5614, 5636, 5656, 5667, 5668, 5814, 5919, 5922, 5955, 5960, 5963, 5974
 6020, 6044, 6079, 6285, 6452, 6627, 6687, 6701, 6766, 6955, 7055, 7057, 7060, 7066, 7070, 7072
 7081, 7086, 7087, 7109, 7112, 7120, 7127, 7129, 7138, 7144, 7145, 7147, 7150, 7156, 7157, 7158
 7179, 7188, 7189, 7205, 7206, 7211, 7227, 7228, 7235, 7238, 7242, 7244, 7245, 7251, 7256, 7257
 7261, 7266, 7269, 7284, 7287, 7294, 7306, 7315, 7328, 7332, 7342, 7348, 7359, 7362, 7368, 7371
 7373, 7380, 7413, 7440, 7526, 7533, 7540, 7543, 7545, 7649
*Elset, elset=_mian_F_S4, internal, instance=bracket_length_100mm-1-1
 1263, 1626, 4484, 4506, 4713, 4720, 5618, 5619, 5676, 5681, 5917, 6283, 6433, 6987, 7136, 7137
 7293, 7344, 7376, 8194
*Surface, type=ELEMENT, name=mian_F
_mian_F_S1, S1
_mian_F_S2, S2
_mian_F_S4, S4
_mian_F_S3, S3
** Constraint: CP-1-bracket_length_100mm-2-1-bracket
*Tie, name=CP-1-bracket_length_100mm-2-1-bracket, adjust=yes, type=SURFACE TO SURFACE
CP-1-bracket_length_100mm-1-1, CP-1-bracket_length_100mm-2-1
*End Assembly
** 
** MATERIALS
** 
*Material, name=Material-1
*Elastic
210000., 0.3
** ----------------------------------------------------------------
** 
** STEP: Step-1
** 
*Step, name=Step-1, nlgeom=NO
*Static
1., 1., 1e-05, 1.
** 
** BOUNDARY CONDITIONS
** 
** Name: BC-1 Type: //
*Boundary
yueshu, ENCASTRE
** 
** LOADS
** 
** Name: Load-1   Type: Concentrated force
*Cload
hezai, 1, 100.
** 
** OUTPUT REQUESTS
** 
*Restart, write, frequency=0
** 
** FIELD OUTPUT: F-Output-1
** 
*Output, field, variable=PRESELECT
** 
** HISTORY OUTPUT: H-Output-1
** 
*Output, history, variable=PRESELECT
*End Step
