*Heading
** Job name: Job-1 Model name: Model-1
** Generated by: Abaqus/CAE 6.14-2
*Preprint, echo=NO, model=NO, history=NO, contact=NO
**
** PARTS
**
*Part, name="Shaft Bracket"
*Node
      1,  -2.04597712,         0.75,  0.754999995
      2,  -2.04597712,         0.75,        1.505
      3,  -2.04597712,          1.5,          0.5
      4,  -2.04597712,           0.,          0.5
      5,  -2.04597712,           0.,         1.75
      6,  -2.04597712,         1.12,         1.75
      7,  -2.04597712,          1.5,         1.37
      8,  -1.66597712,          1.5,          0.5
      9,  -1.66597712,          1.5,         1.37
     10,  -1.66597712,         1.12,         1.75
     11,  -1.66597712,           0.,         1.75
     12,  -1.66597712,           0.,          0.5
     13,  -1.66597712,         0.75,        1.505
     14,  -1.66597712,         0.75,  0.754999995
     15, -0.545976996,           0.,         1.75
     16, -0.545976996,         1.12,         1.75
     17, -0.545976996,          1.5,         1.37
     18, -0.545976996,          1.5,          0.5
     19, -0.545976996,           0.,          0.5
     20, -0.545976996,         0.75,        1.505
** ... 6298 like lines cut
*Element, type=C3D8
  1,  712,  623,  631,  638, 3163, 3074, 3082, 3089
  2,   48,   47,  629,  626, 1041, 1042, 3080, 3077
  3,   51,   50,  688,  619, 1038, 1039, 3139, 3070
  4,  653,  609,  109,  108, 3104, 3060, 1016, 1017
  5,  681,  701,  653,  654, 3132, 3152, 3104, 3105
  6,   53,   52,  620,  630, 1036, 1037, 3071, 3081
  7,  652,    6,  103,  645, 3103,  127,  968, 3096
  8,   55,   54,  617,  710, 1034, 1035, 3068, 3161
  9,  102,  101,  648,  647,  969,  970, 3099, 3098
 10,   58,   57,  677,  616, 1075, 1076, 3128, 3067
 11,  612,  694,  686,  708, 3063, 3145, 3137, 3159
 12,   90,  603,  600,   91,  932, 3054, 3051,  931
 13,  594,  660,  661,  595, 3045, 3111, 3112, 3046
 14,   78,  641,  640,   79,  847, 3092, 3091,  846
 15,   82,  602,  593,   83,  940, 3053, 3044,  939
 16,  657,  640,  672,  602, 3108, 3091, 3123, 3053
 17,   66,   65,  628,  622, 1067, 1068, 3079, 3073
 18,   66,  632,  631,    1, 1067, 3083, 3082,  131
 19,    1,  631,  623,   45,  131, 3082, 3074, 1044
 20,  604,  699,   68,   67, 3055, 3150,  857,  858
** ... 1308 like lines cut
*Element, type=C3D4
 1329, 3806, 3807, 3808, 3809
 1330, 3806, 3807, 3809, 3810
 1331, 3806, 3811, 3807, 3810
 1332, 3812, 3813, 3814, 3815
 1333, 3812, 3816, 3817, 3814
 1334, 3816, 3812, 3818, 3814
 1335, 3819, 3815, 3820, 3812
 1336, 3821, 2050, 2201, 3822
 1337, 3812, 3815, 3820, 3823
 1338, 3812, 3814, 3817, 3815
 1339, 3819, 3812, 3816, 3817
 1340, 3824, 3825, 3826, 3827
 1341, 3824, 3828, 3829, 3830
 1342, 3824, 3831, 3826, 3830
 1343, 3824, 3829, 3831, 3830
 1344, 3832, 3833, 3834, 3835
 1345, 3832, 3836, 3837, 3838
 1346, 3832, 3836, 3834, 3839
 1347, 3832, 3837, 3840, 3841
 1348, 3832, 3833, 3840, 3839
** ... 20393 like lines cut
*Nset, nset=_PickedSet2, internal, generate
    1,  6318,     1
*Elset, elset=_PickedSet2, internal, generate
     1,  21741,      1
** Section: Section-1
*Solid Section, elset=_PickedSet2, material=Material-1
,
*End Part
**  
**
** ASSEMBLY
**
*Assembly, name=Assembly
**  
*Instance, name="Shaft Bracket-1", part="Shaft Bracket"
*End Instance
**  
*Nset, nset=Set-fix, instance="Shaft Bracket-1"
    1,    2,   13,   14,   45,   46,   47,   48,   49,   50,   51,   52,   53,   54,   55,   56
   57,   58,   59,   60,   61,   62,   63,   64,   65,   66,  131,  132,  133,  134,  135,  136
  186,  187,  188,  189,  190,  191,  192,  193,  194,  195,  196,  197,  198,  199,  200,  201
  202,  203,  204,  205,  206,  207, 1034, 1035, 1036, 1037, 1038, 1039, 1040, 1041, 1042, 1043
 1044, 1045, 1046, 1047, 1048, 1049, 1050, 1051, 1052, 1053, 1054, 1055, 1056, 1057, 1058, 1059
 1060, 1061, 1062, 1063, 1064, 1065, 1066, 1067, 1068, 1069, 1070, 1071, 1072, 1073, 1074, 1075
 1076, 1077, 1078, 1079, 1080, 1081, 1082, 1083, 1084, 1085, 1086, 1087, 1088, 1089, 1090, 1091
 1092, 1093, 1094, 1095, 1096, 1097, 1098, 1099
*Nset, nset=Set-load, instance="Shaft Bracket-1"
   15,   16,   24,   25,  208,  209,  210,  211,  212,  213,  214,  215,  216,  217,  218,  285
  286,  287,  288,  289,  290,  312,  313,  314,  315,  316,  317,  318,  319,  320,  321,  322
 1422, 1423, 1424, 1425, 1426, 1427, 1428, 1429, 1430, 1431, 1432, 1433, 1434, 1435, 1436, 1437
 1438, 1439, 1440, 1441, 1442, 1443, 1444, 1445, 1446, 1447, 1448, 1449, 1450, 1451, 1452, 1453
 1454,
*Elset, elset="__T0_Shaft Bracket-1_M_S5", internal, instance="Shaft Bracket-1"
  20,  28, 108, 110, 185, 193, 273, 275, 350, 358, 438, 440, 515, 523, 603, 605
*Elset, elset="__T0_Shaft Bracket-1_M_S6", internal, instance="Shaft Bracket-1"
  14,  29,  76, 109, 179, 194, 241, 274, 344, 359, 406, 439, 509, 524, 571, 604
*Elset, elset="__T0_Shaft Bracket-1_M_S3", internal, instance="Shaft Bracket-1"
  24,  33,  37,  38, 102, 104, 189, 198, 202, 203, 267, 269, 354, 363, 367, 368
 432, 434, 519, 528, 532, 533, 597, 599
*Elset, elset="__T0_Shaft Bracket-1_M_S4", internal, instance="Shaft Bracket-1", generate
  58,  553,  165
*Surface, type=ELEMENT, name="_T0_Shaft Bracket-1_M", internal
"__T0_Shaft Bracket-1_M_S5", S5
"__T0_Shaft Bracket-1_M_S6", S6
"__T0_Shaft Bracket-1_M_S4", S4
"__T0_Shaft Bracket-1_M_S3", S3
*Elset, elset="__T0_Shaft Bracket-1_S_S3", internal, instance="Shaft Bracket-1"
  4103,  8841,  9375, 10877, 11076, 11096, 11209, 11308, 11311, 11319, 11357, 11367, 11372, 11407, 11436, 11437
 11438, 11449, 11516, 11517, 11518, 11524, 11525, 11530, 11533, 11539, 11542, 11550, 11558, 11560, 11562, 11570
 11596, 11602, 11613, 11625, 11626, 11639, 11642, 11643, 12209, 12267, 12293, 12712, 13869, 14276, 14280, 14584
 14585, 14727, 15672, 16356
*Surface, type=ELEMENT, name="_T0_Shaft Bracket-1_S", internal
"__T0_Shaft Bracket-1_S_S3", S3
*Tie, name="_T0_Shaft Bracket-1", adjust=no
"_T0_Shaft Bracket-1_S", "_T0_Shaft Bracket-1_M"
*Elset, elset="__T1_Shaft Bracket-1_M_S5", internal, instance="Shaft Bracket-1"
  707,  751,  783,  786,  874,  918,  950,  953, 1041, 1085, 1117, 1120, 1208, 1252, 1284, 1287
*Elset, elset="__T1_Shaft Bracket-1_M_S6", internal, instance="Shaft Bracket-1"
  675,  698,  706,  752,  781,  842,  865,  873,  919,  948, 1009, 1032, 1040, 1086, 1115, 1176
 1199, 1207, 1253, 1282
*Elset, elset="__T1_Shaft Bracket-1_M_S3", internal, instance="Shaft Bracket-1"
  700,  703,  745,  764,  867,  870,  912,  931, 1034, 1037, 1079, 1098, 1201, 1204, 1246, 1265
*Elset, elset="__T1_Shaft Bracket-1_M_S4", internal, instance="Shaft Bracket-1"
  691,  776,  858,  943, 1025, 1110, 1192, 1277
*Surface, type=ELEMENT, name="_T1_Shaft Bracket-1_M", internal
"__T1_Shaft Bracket-1_M_S5", S5
"__T1_Shaft Bracket-1_M_S6", S6
"__T1_Shaft Bracket-1_M_S4", S4
"__T1_Shaft Bracket-1_M_S3", S3
*Elset, elset="__T1_Shaft Bracket-1_S_S3", internal, instance="Shaft Bracket-1"
  4042,  4160,  5575,  5578,  5590,  5607,  7752,  7755,  8383,  8756,  8766,  8953,  9279,  9868, 10011, 10019
 10248, 10250, 10289, 10292, 10296, 10539, 10675, 10705, 11912, 11927, 12316, 12325, 12329, 12337, 12345, 12348
 12350, 12362, 12380, 12401, 12403, 12447, 12449, 12453, 12454, 12473, 12474, 12498, 12506, 13022, 13033, 13042
 13051, 14036, 14037
*Elset, elset="__T1_Shaft Bracket-1_S_S2", internal, instance="Shaft Bracket-1"
 12438,
*Surface, type=ELEMENT, name="_T1_Shaft Bracket-1_S", internal
"__T1_Shaft Bracket-1_S_S3", S3
"__T1_Shaft Bracket-1_S_S2", S2
*Tie, name="_T1_Shaft Bracket-1", adjust=no
"_T1_Shaft Bracket-1_S", "_T1_Shaft Bracket-1_M"
*End Assembly
** 
** MATERIALS
** 
*Material, name=Material-1
*Elastic
 2.1e+09, 0.3
** ----------------------------------------------------------------
** 
** STEP: Step-load
** 
*Step, name=Step-load, nlgeom=NO
*Static
1., 1., 1e-05, 1.
** 
** BOUNDARY CONDITIONS
** 
** Name: BC-1 Type: Symmetry/Antisymmetry/Encastre
*Boundary
Set-fix, ENCASTRE
** 
** LOADS
** 
** Name: Load-1   Type: Concentrated force
*Cload
Set-load, 3, -100000.
** 
** OUTPUT REQUESTS
** 
*Restart, write, frequency=0
** 
** FIELD OUTPUT: F-Output-1
** 
*Output, field, variable=PRESELECT
** 
** HISTORY OUTPUT: H-Output-1
** 
*Output, history, variable=PRESELECT
*End Step
