*Heading
** Job name: NLFEA Model name: Model-1
** Generated by: Abaqus/CAE 6.14-2
*Preprint, echo=NO, model=NO, history=NO, contact=NO
**
** PARTS
**
*Part, name=Part-1
*Node
      1,          20.,           5.,           5.
      2,           0.,           0.,           5.
      3,           0.,           0.,           0.
      4,          20.,           5.,           0.
      5,          10.,         5.25,           5.
      6,          10.,         5.25,           0.
      7,           0.,          10.,           5.
      8,           0.,          10.,           0.
      9,          20.,          10.,           0.
     10,          20.,          10.,           5.
     11,   19.6153851,   4.90384626,           5.
     12,   19.2307701,   4.80769253,           5.
     13,   18.8461533,   4.71153831,           5.
     14,   18.4615383,   4.61538458,           5.
     15,   18.0769234,   4.51923084,           5.
     16,   17.6923084,   4.42307711,           5.
     17,   17.3076916,   4.32692289,           5.
     18,   16.9230766,   4.23076916,           5.
     19,   16.5384617,   4.13461542,           5.
     20,   16.1538467,   4.03846169,           5.
** ... 13509 like lines cut
*Element, type=C3D4
    1,  3961,  3962,  3963,  3964
    2,  3961,  3965,  3966,  3967
    3,  3961,  3964,  3965,  3967
    4,  3968,  3969,  3970,  3971
    5,  3968,  3969,  3972,  3973
    6,  3968,  3974,  3972,  3975
    7,  3968,  3971,  3976,  3975
    8,  3977,  3978,  3979,  3980
    9,  3977,  3981,  3979,  3982
   10,  3977,  3981,  3982,  3983
   11,  3977,  3978,  3984,  3979
   12,  3985,  3986,  3987,  3988
   13,  3985,  3989,  3990,  3991
   14,  3985,  3990,  3992,  3993
   15,  3994,  1751,  1699,  3959
   16,  3985,  3990,  3989,  3992
   17,  3985,  3993,  3987,  3995
   18,  3985,  3990,  3993,  3981
   19,  3996,  3997,  3998,  3999
   20,  3996,  4000,  4001,  4002
** ... 69356 like lines cut
*Nset, nset=_PickedSet2, internal, generate
     1,  13529,      1
*Elset, elset=_PickedSet2, internal, generate
     1,  69376,      1
*Nset, nset=Set-load
   1,   4, 125, 126, 127, 128, 129, 130, 131, 132, 133, 134, 135, 136
*Nset, nset=Set-fix
    2,    3,    7,    8,   62,   63,   64,   65,   66,   67,   68,   69,   70,   71,   72,   73
  167,  168,  169,  170,  171,  172,  173,  174,  175,  176,  177,  178,  179,  180,  181,  182
  183,  184,  185,  186,  187,  188,  189,  190,  191,  192,  193,  194,  195,  196,  197,  198
  199,  200,  201,  202,  203,  204,  205,  206,  207,  208,  209,  210,  211,  212,  213,  214
  215,  216,  217,  218,  219,  220,  221,  222,  223,  224,  225,  226, 1165, 1166, 1167, 1168
 1169, 1170, 1171, 1172, 1173, 1174, 1175, 1176, 1177, 1178, 1179, 1180, 1181, 1182, 1183, 1184
 1185, 1186, 1187, 1188, 1189, 1190, 1191, 1192, 1193, 1194, 1195, 1196, 1197, 1198, 1199, 1200
 1201, 1202, 1203, 1204, 1205, 1206, 1207, 1208, 1209, 1210, 1211, 1212, 1213, 1214, 1215, 1216
 1217, 1218, 1219, 1220, 1221, 1222, 1223, 1224, 1225, 1226, 1227, 1228, 1229, 1230, 1231, 1232
 1233, 1234, 1235, 1236, 1237, 1238, 1239, 1240, 1241, 1242, 1243, 1244, 1245, 1246, 1247, 1248
 1249, 1250, 1251, 1252, 1253, 1254, 1255, 1256, 1257, 1258, 1259, 1260, 1261, 1262, 1263, 1264
 1265, 1266, 1267, 1268, 1269, 1270, 1271, 1272, 1273, 1274, 1275, 1276, 1277, 1278, 1279, 1280
 1281, 1282, 1283, 1284, 1285, 1286, 1287, 1288, 1289, 1290, 1291, 1292, 1293, 1294, 1295, 1296
 1297, 1298, 1299, 1300, 1301, 1302, 1303, 1304, 1305, 1306, 1307, 1308, 1309, 1310, 1311, 1312
 1313, 1314, 1315, 1316, 1317, 1318, 1319, 1320, 1321, 1322, 1323, 1324, 1325, 1326, 1327, 1328
 1329, 1330, 1331, 1332, 1333, 1334, 1335, 1336, 1337, 1338, 1339, 1340, 1341, 1342, 1343, 1344
 1345, 1346, 1347, 1348, 1349, 1350, 1351, 1352, 1353, 1354, 1355, 1356, 1357, 1358, 1359, 1360
 1361, 1362, 1363, 1364, 1365, 1366, 1367, 1368, 1369, 1370, 1371, 1372, 1373, 1374, 1375, 1376
 1377, 1378, 1379, 1380, 1381, 1382, 1383, 1384, 1385, 1386, 1387, 1388, 1389, 1390, 1391, 1392
 1393, 1394, 1395, 1396, 1397, 1398, 1399, 1400, 1401, 1402, 1403, 1404, 1405, 1406, 1407, 1408
 1409, 1410, 1411, 1412, 1413, 1414, 1415, 1416, 1417, 1418, 1419, 1420, 1421, 1422, 1423, 1424
 1425, 1426, 1427, 1428, 1429, 1430, 1431, 1432, 1433, 1434, 1435, 1436, 1437, 1438, 1439, 1440
 1441, 1442, 1443, 1444, 1445, 1446, 1447, 1448, 1449, 1450, 1451, 1452
** Section: Section-1
*Solid Section, elset=_PickedSet2, material=Material-1
,
*End Part
**  
**
** ASSEMBLY
**
*Assembly, name=Assembly
**  
*Instance, name=Part-1-1, part=Part-1
*End Instance
**  
*End Assembly
** 
** MATERIALS
** 
*Material, name=Material-1
*Elastic
2100000000., 0.3
** ----------------------------------------------------------------
** 
** STEP: Step-1
** 
*Step, name=Step-1, nlgeom=YES
*Static
0.001, 1., 1e-05, 0.1
** 
** BOUNDARY CONDITIONS
** 
** Name: BC-1 Type: Symmetry/Antisymmetry/Encastre
*Boundary
Part-1-1.Set-fix, ENCASTRE
** 
** LOADS
** 
** Name: Load-1   Type: Concentrated force
*Cload
Part-1-1.Set-load, 2, -1000000.
** 
** OUTPUT REQUESTS
** 
*Restart, write, frequency=0
** 
** FIELD OUTPUT: F-Output-1
** 
*Output, field, variable=PRESELECT
** 
** HISTORY OUTPUT: H-Output-1
** 
*Output, history, variable=PRESELECT
*End Step
