*Heading
** Job name: Job-1 Model name: Model-1
** Generated by: Abaqus/CAE 6.14-2
*Preprint, echo=NO, model=NO, history=NO, contact=NO
**
** PARTS
**
*Part, name=Part-1
*End Part
**  
**
** ASSEMBLY
**
*Assembly, name=Assembly
**  
*Instance, name=Part-1-1, part=Part-1
*Node
      1,   24.9664021,    22.578661,           0.
      2,   24.5825748,          20.,           0.
      3,          24.,          25.,           0.
      4,          55.,           5.,           0.
      5,          92.,           5.,           0.
      6,        33.75,   34.8717957,           0.
      7,          25.,   39.3589745,           0.
      8,          14.,          45.,           0.
      9,           5.,          45.,           0.
     10,           5.,          25.,           0.
     11,          16.,          25.,           0.
     12,   17.7639313,   26.4721355,           0.
     13,          20.,          27.,           0.
     14,           5.,          20.,           0.
     15,   15.4174242,          20.,           0.
     16,           5.,           5.,           0.
     17,          35.,           5.,           0.
     18,          20.,          17.,           0.
     19,   17.2613869,      17.8167,           0.
     20,           0.,          50.,           0.
** ... 3108 like lines cut
*Element, type=C3D8R
   1,   12,  207,  344,   13,  403,  598,  735,  404
   2,  367,   27,    2,  366,  758,  418,  393,  757
   3,  357,   15,   19,  244,  748,  406,  410,  635
   4,  333,  338,  105,  106,  724,  729,  496,  497
   5,  320,  370,  369,  319,  711,  761,  760,  710
   6,  314,  313,  186,  187,  705,  704,  577,  578
   7,  267,  345,  175,  176,  658,  736,  566,  567
   8,   14,  220,  226,   92,  405,  611,  617,  483
   9,   10,  223,  224,  225,  401,  614,  615,  616
  10,  221,  217,   78,    9,  612,  608,  469,  400
  11,    9,   77,  239,  240,  400,  468,  630,  631
  12,   77,   76,  235,  239,  468,  467,  626,  630
  13,  359,  356,  285,  286,  750,  747,  676,  677
  14,   71,   72,  216,  384,  462,  463,  607,  775
  15,  213,    3,   69,  214,  604,  394,  460,  605
  16,  207,  354,  208,  344,  598,  745,  599,  735
  17,  344,  208,    1,    3,  735,  599,  392,  394
  18,  209,  210,   14,   90,  600,  601,  405,  481
  19,   85,   84,  210,  209,  476,  475,  601,  600
  20,  370,  320,  321,  371,  761,  711,  712,  762
** ... 2010 like lines cut
*Nset, nset=Set-1, generate
    1,  3128,     1
*Elset, elset=Set-1, generate
    1,  2030,     1
** Section: Section-1
*Solid Section, elset=Set-1, material=Material-1
,
*End Instance
**  
*Nset, nset=Set-constrain, instance=Part-1-1
   20,   21,  110,  111,  112,  113,  114,  115,  116,  117,  118,  119,  120,  121,  122,  123
  124,  125,  126,  411,  412,  501,  502,  503,  504,  505,  506,  507,  508,  509,  510,  511
  512,  513,  514,  515,  516,  517,  802,  803,  892,  893,  894,  895,  896,  897,  898,  899
  900,  901,  902,  903,  904,  905,  906,  907,  908, 1193, 1194, 1283, 1284, 1285, 1286, 1287
 1288, 1289, 1290, 1291, 1292, 1293, 1294, 1295, 1296, 1297, 1298, 1299, 1584, 1585, 1674, 1675
 1676, 1677, 1678, 1679, 1680, 1681, 1682, 1683, 1684, 1685, 1686, 1687, 1688, 1689, 1690, 1975
 1976, 2065, 2066, 2067, 2068, 2069, 2070, 2071, 2072, 2073, 2074, 2075, 2076, 2077, 2078, 2079
 2080, 2081, 2366, 2367, 2456, 2457, 2458, 2459, 2460, 2461, 2462, 2463, 2464, 2465, 2466, 2467
 2468, 2469, 2470, 2471, 2472, 2757, 2758, 2847, 2848, 2849, 2850, 2851, 2852, 2853, 2854, 2855
 2856, 2857, 2858, 2859, 2860, 2861, 2862, 2863
*Nset, nset=Set-load, instance=Part-1-1
   24,   25,  169,  170,  171,  172,  173,  174,  415,  416,  560,  561,  562,  563,  564,  565
  806,  807,  951,  952,  953,  954,  955,  956, 1197, 1198, 1342, 1343, 1344, 1345, 1346, 1347
 1588, 1589, 1733, 1734, 1735, 1736, 1737, 1738, 1979, 1980, 2124, 2125, 2126, 2127, 2128, 2129
 2370, 2371, 2515, 2516, 2517, 2518, 2519, 2520, 2761, 2762, 2906, 2907, 2908, 2909, 2910, 2911
*End Assembly
** 
** MATERIALS
** 
*Material, name=Material-1
*Elastic
210000., 0.3
** ----------------------------------------------------------------
** 
** STEP: Step-load
** 
*Step, name=Step-load, nlgeom=NO
*Static
1., 1., 1e-05, 1.
** 
** BOUNDARY CONDITIONS
** 
** Name: BC-1 Type: Displacement/Rotation
*Boundary
Set-constrain, 1, 1
Set-constrain, 2, 2
Set-constrain, 3, 3
** 
** LOADS
** 
** Name: Load-1   Type: Concentrated force
*Cload
Set-load, 2, -100.
** 
** OUTPUT REQUESTS
** 
*Restart, write, frequency=0
** 
** FIELD OUTPUT: F-Output-1
** 
*Output, field, variable=PRESELECT
** 
** HISTORY OUTPUT: H-Output-1
** 
*Output, history, variable=PRESELECT
*End Step
