*Heading
** Job name: Job-cafull Model name: Model-1
** Generated by: Abaqus/CAE 2021
*Preprint, echo=NO, model=NO, history=NO, contact=NO
**
** PARTS
**
*Part, name=Part-1
*End Part
**  
**
** ASSEMBLY
**
*Assembly, name=Assembly
**  
*Instance, name=Part-1-1, part=Part-1
*Node
      1,          15.,          35.,           0.
      2,          15.,          35.,           5.
      3,          15.,         -35.,           5.
      4,          15.,         -35.,           0.
      5,          10.,         -35.,           5.
      6,          10.,         -35.,           0.
      7,          10.,          35.,           0.
      8,          10.,          35.,           5.
      9,         -10.,          35.,           5.
     10,         -10.,         -35.,           5.
     11,         -10.,         -35.,           0.
     12,         -10.,          35.,           0.
     13,         -15.,          35.,           5.
     14,         -15.,         -35.,           5.
     15,         -15.,         -35.,           0.
     16,         -15.,          35.,           0.
     17,         -2.5,          35.,           5.
     18,         -2.5,          35.,           0.
     19,         -15.,          40.,           5.
     20,         -15.,          40.,           0.
** ... 11338 like lines cut
*Element, type=C3D4
    1, 5485, 5486, 5487, 5488
    2, 5485, 5489, 5487, 5486
    3, 5485, 5489, 5490, 5487
    4, 5485, 5491, 5492, 5488
    5, 5493, 5494, 5495, 5496
    6, 5493, 5497, 5498, 5499
    7, 5500, 5499, 5501, 5493
    8, 1279, 5493, 5500, 5502
    9, 5493, 5497, 5495, 5498
   10, 5493, 5501, 5500, 5502
   11, 5503, 5504, 5505, 5506
   12, 1478, 5507, 1474, 1473
   13, 5507, 2316,  263, 2315
   14, 5505, 5504, 5508, 5506
   15, 1557, 5509, 5510, 5511
   16, 5506, 5512, 5504, 5508
   17, 5506, 5513, 5505, 5514
   18, 5515, 5487, 5516, 5490
   19, 5517, 1689,  209,  210
   20, 5485, 5518, 5490, 5489
** ... 50777 like lines cut
*Nset, nset=Set-1, generate
     1,  11358,      1
*Elset, elset=Set-1, generate
     1,  50797,      1
** Section: Section-1
*Solid Section, elset=Set-1, material=Material-1
,
*End Instance
**  
*Elset, elset=Set-del, instance=Part-1-1, generate
 31927,  44902,      1
*Nset, nset=Set-fix, instance=Part-1-1
   29,   30,   31,   32, 1087, 1088, 1089, 1090, 1113, 1114, 1115, 1116, 1117, 1118, 1119, 1120
 1121, 1122, 1123, 1124, 1125, 1126, 1127, 1128, 1129, 1130, 1131, 1132, 1133, 1134, 1135, 1136
 1137, 1138, 1139, 1140, 1141, 1142, 1143, 1144, 1145, 1146, 1147, 1148, 1149, 1150, 1151, 1152
 1153, 1154, 1155, 1156, 1157, 1158, 1159, 1160, 1161, 1162, 1163, 1164, 1165, 1166, 1167, 1168
 1169, 1170, 1171, 1172, 1173, 1174, 1175, 1176, 5229, 5230, 5231, 5232, 5233, 5234, 5235, 5236
 5237, 5238, 5239, 5240, 5241, 5242, 5243, 5244, 5245, 5246, 5247, 5248, 5249, 5250, 5251, 5252
 5253, 5254, 5255, 5256, 5257, 5258, 5259, 5260, 5261, 5262, 5263, 5264, 5265, 5266, 5267, 5268
 5269, 5270, 5271, 5272, 5273, 5274, 5275, 5276, 5277, 5278, 5279, 5280, 5281, 5282, 5283, 5284
 5285, 5286, 5287, 5288, 5289, 5290, 5291, 5292, 5293, 5294, 5295, 5296, 5297, 5298, 5299, 5300
 5301, 5302, 5303, 5304, 5305, 5306, 5307, 5308, 5309, 5310, 5311, 5312, 5313, 5314, 5315, 5316
 5317, 5318, 5319, 5320, 5321, 5322, 5323, 5324, 5325, 5326, 5327, 5328, 5329, 5330, 5331, 5332
 5333, 5334, 5335, 5336, 5337, 5338, 5339, 5340, 5341, 5342, 5343, 5344, 5345, 5346, 5347, 5348
*Nset, nset=Set-load, instance=Part-1-1
  19,  21, 679, 680, 681, 682, 683, 684, 685, 686, 687, 688, 689, 690, 691, 692
 693, 694, 695, 696, 697, 698, 699, 700, 701, 702, 703, 704, 705, 706, 707, 708
*End Assembly
** 
** MATERIALS
** 
*Material, name=Material-1
*Elastic
 2.1e+10, 0.3
** ----------------------------------------------------------------
** 
** STEP: Step-1
** 
*Step, name=Step-1, nlgeom=NO
*Static
1., 1., 1e-05, 1.
** 
** BOUNDARY CONDITIONS
** 
** Name: BC-1 Type: Symmetry/Antisymmetry/Encastre
*Boundary
Set-fix, ENCASTRE
** 
** LOADS
** 
** Name: Load-1   Type: Concentrated force
*Cload
Set-load, 3, -200000.
** 
** OUTPUT REQUESTS
** 
*Restart, write, frequency=0
** 
** FIELD OUTPUT: F-Output-1
** 
*Output, field, variable=PRESELECT
** 
** HISTORY OUTPUT: H-Output-1
** 
*Output, history, variable=PRESELECT
*End Step
