*Heading
** Job name: nlcae Model name: Model-1
** Generated by: Abaqus/CAE 2021
*Preprint, echo=NO, model=NO, history=NO, contact=NO
**
** PARTS
**
*Part, name=Part-1
*Node
      1,          24.,           1.,           4.
      2,           0.,           0.,           4.
      3,           0.,           0.,           0.
      4,          24.,           1.,           0.
      5,           0.,           6.,           4.
      6,           0.,           6.,           0.
      7,          24.,           6.,           0.
      8,          24.,           6.,           4.
      9,   23.2000008,  0.966666639,           4.
     10,   22.3999996,  0.933333337,           4.
     11,   21.6000004,  0.899999976,           4.
     12,   20.7999992,  0.866666675,           4.
     13,          20.,  0.833333313,           4.
     14,   19.2000008,  0.800000012,           4.
     15,   18.3999996,  0.766666651,           4.
     16,   17.6000004,  0.733333349,           4.
     17,   16.7999992,  0.699999988,           4.
     18,          16.,  0.666666687,           4.
     19,   15.1999998,  0.633333325,           4.
     20,   14.3999996,  0.600000024,           4.
** ... 1670 like lines cut
*Element, type=C3D4
   1,  793,  794,  795,  796
   2,  794,  797,  798,  799
   3,  794,  795,  800,  801
   4,  794,  795,  801,  798
   5,  802,  803,  804,  805
   6,  802,  806,  807,  808
   7,  802,  808,  807,  809
   8,  810,  811,  812,  813
   9,  810,  814,  812,  811
  10,  810,  815,  812,  814
  11,  810,  812,  816,  813
  12,  817,  818,  819,  820
  13,  817,  821,  818,  822
  14,  817,  823,  824,  825
  15,  826,  821,  827,  817
  16,  817,  821,  822,  824
  17,  817,  828,  823,  819
  18,  829,  830,  831,  832
  19,  829,  833,  832,  834
  20,  835,  832,  836,  829
** ... 7559 like lines cut
*Nset, nset=_PickedSet2, internal, generate
    1,  1690,     1
*Elset, elset=_PickedSet2, internal, generate
    1,  7579,     1
*Nset, nset=Set-load
  1,  4, 71, 72, 73, 74
*Nset, nset=Set-fix
   2,   3,   5,   6,  38,  39,  40,  41,  75,  76,  77,  78,  79,  80,  81,  82
  83,  84,  85,  86,  87,  88,  89,  90, 281, 282, 283, 284, 285, 286, 287, 288
 289, 290, 291, 292, 293, 294, 295, 296, 297, 298, 299, 300, 301, 302, 303, 304
** Section: Section-1
*Solid Section, elset=_PickedSet2, material=Material-1
,
*End Part
**  
**
** ASSEMBLY
**
*Assembly, name=Assembly
**  
*Instance, name=Part-1-1, part=Part-1
*End Instance
**  
*End Assembly
** 
** MATERIALS
** 
*Material, name=Material-1
*Elastic
210000., 0.3
** ----------------------------------------------------------------
** 
** STEP: Step-NL
** 
*Step, name=Step-NL, nlgeom=YES, inc=1000
*Static
0.01, 1., 1e-05, 0.1
** 
** BOUNDARY CONDITIONS
** 
** Name: BC-1 Type: Symmetry/Antisymmetry/Encastre
*Boundary
Part-1-1.Set-fix, ENCASTRE
** 
** LOADS
** 
** Name: Load-1   Type: Concentrated force
*Cload
Part-1-1.Set-load, 2, -10.
** 
** OUTPUT REQUESTS
** 
*Restart, write, frequency=0
** 
** FIELD OUTPUT: F-Output-1
** 
*Output, field, variable=PRESELECT
** 
** HISTORY OUTPUT: H-Output-1
** 
*Output, history, variable=PRESELECT
*End Step
