*Heading
** Job name: modefy Model name: modefy
** Generated by: Abaqus/CAE 2021
*Preprint, echo=NO, model=NO, history=NO, contact=NO
**
** PARTS
**
*Part, name=Part-1
*End Part
**  
**
** ASSEMBLY
**
*Assembly, name=Assembly
**  
*Instance, name=Part-1-1, part=Part-1
*Node
      1,         -15.,          35.,           0.
      2,         -15.,          35.,           5.
      3,         -15.,          40.,           5.
      4,         -15.,          40.,           0.
      5,         -10.,          35.,           0.
      6,         -10.,          35.,           5.
      7,          10.,          35.,           5.
      8,          10.,          35.,           0.
      9,          15.,          35.,           5.
     10,          15.,          40.,           5.
     11,          15.,          40.,           0.
     12,          15.,          35.,           0.
     13,         -15.,         -35.,           0.
     14,         -15.,         -35.,           5.
     15,         -10.,         -35.,           0.
     16,         -10.,         -35.,           5.
     17,          10.,         -35.,           5.
     18,          10.,         -35.,           0.
     19,          15.,         -35.,           0.
     20,          15.,         -35.,           5.
** ... 8240 like lines cut
*Element, type=C3D4
   1, 4065, 4066, 4067, 4068
   2, 4065, 4069, 4070, 4071
   3, 4065, 4072, 4073, 4071
   4, 4065, 4074, 1135, 4072
   5, 4065, 4072, 4071, 4074
   6, 4065, 4075, 4066, 4076
   7, 4077, 4078, 4079, 4080
   8, 4081, 4082, 4083, 4084
   9, 4083, 4081, 4085, 4082
  10, 4080, 4081, 1015, 4086
  11, 4081, 1015, 4084, 4079
  12, 4081, 1015, 4086, 4084
  13, 4087, 4088, 4089, 4090
  14, 4091, 4092, 4093, 4094
  15, 4091, 4095, 4096, 4097
  16, 4094, 4087, 4091, 4088
  17, 4091, 4092, 4097, 4098
  18, 4091, 4096, 4095, 4088
  19, 4099, 4100, 4101, 4102
  20, 4099, 4103, 4101, 4100
** ... 36629 like lines cut
*Nset, nset=Set-1, generate
    1,  8260,     1
*Elset, elset=Set-1, generate
     1,  36649,      1
** Section: Section-1
*Solid Section, elset=Set-1, material=Material-1
,
*End Instance
**  
*Nset, nset=Set-fix, instance=Part-1-1
   21,   22,   23,   24,  765,  766,  767,  768,  815,  816,  817,  818,  819,  820,  821,  822
  823,  824,  825,  826,  827,  828,  829,  830,  831,  832,  833,  834,  835,  836,  837,  838
  839,  840,  841,  842,  843,  844,  845,  846,  847,  848,  849,  850,  851,  852,  853,  854
  855,  856,  857,  858,  859,  860,  861,  862,  863,  864,  865,  866,  867,  868,  869,  870
  871,  872,  873,  874,  875,  876, 3817, 3818, 3819, 3820, 3821, 3822, 3823, 3824, 3825, 3826
 3827, 3828, 3829, 3830, 3831, 3832, 3833, 3834, 3835, 3836, 3837, 3838, 3839, 3840, 3841, 3842
 3843, 3844, 3845, 3846, 3847, 3848, 3849, 3850, 3851, 3852, 3853, 3854, 3855, 3856, 3857, 3858
 3859, 3860, 3861, 3862, 3863, 3864, 3865, 3866, 3867, 3868, 3869, 3870, 3871, 3872, 3873, 3874
 3875, 3876, 3877, 3878, 3879, 3880, 3881, 3882, 3883, 3884, 3885, 3886, 3887, 3888, 3889, 3890
 3891, 3892, 3893, 3894, 3895, 3896, 3897, 3898, 3899, 3900, 3901, 3902, 3903, 3904, 3905, 3906
 3907, 3908, 3909, 3910, 3911, 3912, 3913, 3914, 3915, 3916, 3917, 3918, 3919, 3920, 3921, 3922
 3923, 3924, 3925, 3926, 3927, 3928, 3929, 3930, 3931, 3932
*Nset, nset=Set-load, instance=Part-1-1
   3,  10,  99, 100, 101, 102, 103, 104, 105, 106, 107, 108, 109, 110, 111, 112
 113, 114, 115, 116, 117, 118, 119, 120, 121, 122, 123, 124, 125, 126, 127
*End Assembly
** 
** MATERIALS
** 
*Material, name=Material-1
*Elastic
21000., 0.3
** ----------------------------------------------------------------
** 
** STEP: Step-1
** 
*Step, name=Step-1, nlgeom=NO
*Static
1., 1., 1e-05, 1.
** 
** BOUNDARY CONDITIONS
** 
** Name: BC-1 Type: Symmetry/Antisymmetry/Encastre
*Boundary
Set-fix, ENCASTRE
** 
** LOADS
** 
** Name: Load-1   Type: Concentrated force
*Cload
Set-load, 3, -10.
** 
** OUTPUT REQUESTS
** 
*Restart, write, frequency=0
** 
** FIELD OUTPUT: F-Output-1
** 
*Output, field, variable=PRESELECT
** 
** HISTORY OUTPUT: H-Output-1
** 
*Output, history, variable=PRESELECT
*End Step
